16
Coordinates from ORCA-job Pt3_zntop E -2817.254057630421
  Pt     -5.586660     11.958330      8.447370
  Pt     -5.051100      9.287710      8.642360
  Pt     -3.395570     11.103100      9.833120
  O      -7.356300     14.218510      7.416140
  O      -7.584310     10.062420      7.054200
  O      -5.781220      6.405730      7.962400
  O      -2.647460      8.129310     10.196550
  O      -3.850180     14.155050      9.748340
  O      -0.889710     11.709220     11.463020
  C      -6.684520     13.363650      7.810580
  C      -6.617270     10.301440      7.689580
  C      -5.502760      7.496570      8.227030
  C      -3.321310      9.008980      9.786480
  C      -4.124020     13.035480      9.488620
  C      -1.843010     11.482010     10.848800
  Zn     -3.106100     10.953980      6.779600
16
Coordinates from ORCA-job Pt3_zntop E -2817.255385600523
  Pt     -5.575169     11.945543      8.451324
  Pt     -5.045433      9.304183      8.642901
  Pt     -3.405374     11.099112      9.816354
  O      -7.326701     14.196623      7.413356
  O      -7.570115     10.065315      7.068063
  O      -5.765015      6.435624      7.959970
  O      -2.656573      8.143076     10.185773
  O      -3.853877     14.137211      9.743540
  O      -0.912348     11.704006     11.440331
  C      -6.659338     13.342475      7.810657
  C      -6.613883     10.303116      7.711574
  C      -5.489564      7.524882      8.225247
  C      -3.335988      9.018945      9.790348
  C      -4.134752     13.021201      9.496985
  C      -1.862979     11.476346     10.826017
  Zn     -3.134391     10.953832      6.811750
16
Coordinates from ORCA-job Pt3_zntop E -2817.256975207533
  Pt     -5.581538     11.952751      8.449076
  Pt     -5.048660      9.294432      8.640969
  Pt     -3.394426     11.100372      9.817183
  O      -7.315623     14.209580      7.383719
  O      -7.585852     10.061757      7.071800
  O      -5.751951      6.422975      7.937016
  O      -2.652600      8.133448     10.192833
  O      -3.855138     14.147518      9.753393
  O      -0.890450     11.708868     11.430274
  C      -6.655763     13.354834      7.789526
  C      -6.639406     10.298540      7.725867
  C      -5.483021      7.511453      8.208226
  C      -3.339495      9.007031      9.812446
  C      -4.144180     13.033089      9.520381
  C      -1.842638     11.479997     10.820549
  Zn     -3.160757     10.954844      6.840932
16
Coordinates from ORCA-job Pt3_zntop E -2817.258848534783
  Pt     -5.586076     11.955913      8.450469
  Pt     -5.052293      9.289162      8.642065
  Pt     -3.388929     11.100210      9.817182
  O      -7.300792     14.222280      7.351234
  O      -7.599284     10.059055      7.075341
  O      -5.735593      6.411060      7.911775
  O      -2.649363      8.124891     10.198225
  O      -3.856249     14.155653      9.761935
  O      -0.867471     11.714412     11.415543
  C      -6.649413     13.366043      7.766982
  C      -6.660348     10.294889      7.738135
  C      -5.474677      7.499615      8.189712
  C      -3.342317      8.996993      9.829913
  C      -4.151944     13.042318      9.539452
  C      -1.822574     11.483418     10.811580
  Zn     -3.204178     10.955578      6.894648
16
Coordinates from ORCA-job Pt3_zntop E -2817.260719408284
  Pt     -5.587095     11.956161      8.451144
  Pt     -5.053948      9.287809      8.641977
  Pt     -3.386191     11.099218      9.814505
  O      -7.286270     14.230687      7.326101
  O      -7.611022     10.057056      7.077601
  O      -5.720489      6.403727      7.893052
  O      -2.647365      8.116604     10.203467
  O      -3.857567     14.162866      9.769898
  O      -0.850931     11.719026     11.400792
  C      -6.640947     13.372375      7.748520
  C      -6.675538     10.292376      7.745771
  C      -5.465961      7.493594      8.174109
  C      -3.343755      8.988801      9.841685
  C      -4.157135     13.049544      9.552695
  C      -1.808144     11.485410     10.800168
  Zn     -3.249140     10.956237      6.952706
16
Coordinates from ORCA-job Pt3_zntop E -2817.262934374580
  Pt     -5.578845     11.950984      8.446700
  Pt     -5.048714      9.294644      8.635661
  Pt     -3.386287     11.097010      9.802754
  O      -7.275070     14.229710      7.320682
  O      -7.616940     10.057147      7.080295
  O      -5.710967      6.406528      7.892610
  O      -2.650921      8.112086     10.208569
  O      -3.861571     14.164260      9.778172
  O      -0.851198     11.721020     11.389900
  C      -6.628772     13.368101      7.740300
  C      -6.676736     10.292978      7.747535
  C      -5.457119      7.500511      8.166350
  C      -3.346013      8.987763      9.842531
  C      -4.159793     13.048459      9.555996
  C      -1.806974     11.484166     10.784492
  Zn     -3.285578     10.956122      7.001643
16
Coordinates from ORCA-job Pt3_zntop E -2817.264961930948
  Pt     -5.568791     11.946396      8.438783
  Pt     -5.041681      9.301244      8.626616
  Pt     -3.385995     11.095749      9.790539
  O      -7.260373     14.221458      7.322864
  O      -7.615781     10.059073      7.088176
  O      -5.700997      6.418340      7.896398
  O      -2.662668      8.115882     10.214166
  O      -3.869670     14.155980      9.788046
  O      -0.858781     11.721413     11.374103
  C      -6.612492     13.358104      7.736111
  C      -6.670934     10.295096      7.750859
  C      -5.446518      7.514501      8.160471
  C      -3.353467      8.993473      9.841078
  C      -4.164321     13.039662      9.558040
  C      -1.811257     11.482228     10.764415
  Zn     -3.317775     10.952893      7.043525
16
Coordinates from ORCA-job Pt3_zntop E -2817.266313737067
  Pt     -5.560925     11.945829      8.428151
  Pt     -5.034901      9.303239      8.616459
  Pt     -3.382881     11.095814      9.783426
  O      -7.249808     14.221280      7.317235
  O      -7.616161     10.061166      7.103305
  O      -5.690727      6.421730      7.890985
  O      -2.679788      8.122556     10.227473
  O      -3.882485     14.144830      9.804512
  O      -0.853597     11.723263     11.356969
  C      -6.601659     13.357266      7.726089
  C      -6.665193     10.297256      7.755636
  C      -5.436276      7.518244      8.149622
  C      -3.362573      9.000427      9.842667
  C      -4.170016     13.029868      9.562222
  C      -1.805086     11.482914     10.747909
  Zn     -3.349424     10.945805      7.081529
16
Coordinates from ORCA-job Pt3_zntop E -2817.267233720941
  Pt     -5.553737     11.948626      8.414283
  Pt     -5.026841      9.302013      8.603099
  Pt     -3.375884     11.097147      9.778329
  O      -7.239907     14.222857      7.307625
  O      -7.625636     10.062126      7.125357
  O      -5.680098      6.423377      7.879221
  O      -2.698899      8.125946     10.251764
  O      -3.899703     14.137978      9.829372
  O      -0.843386     11.725502     11.339223
  C      -6.591437     13.358560      7.713800
  C      -6.663815     10.298680      7.760503
  C      -5.425244      7.519767      8.135566
  C      -3.370106      9.004260      9.848883
  C      -4.175734     13.024439      9.568920
  C      -1.795685     11.484677     10.732704
  Zn     -3.375389     10.935535      7.105541
16
Coordinates from ORCA-job Pt3_zntop E -2817.267981335112
  Pt     -5.544524     11.952016      8.398114
  Pt     -5.015814      9.301224      8.586723
  Pt     -3.366744     11.099038      9.770891
  O      -7.234874     14.226794      7.298602
  O      -7.638635     10.062636      7.156593
  O      -5.672435      6.422295      7.866757
  O      -2.722585      8.130166     10.282743
  O      -3.921306     14.130450      9.859483
  O      -0.832132     11.727318     11.327723
  C      -6.584285     13.362483      7.701759
  C      -6.660598     10.300249      7.766330
  C      -5.415198      7.518660      8.121373
  C      -3.377409      9.009132      9.854367
  C      -4.180659     13.018750      9.573909
  C      -1.785125     11.486866     10.721979
  Zn     -3.389174     10.923413      7.106845
16
Coordinates from ORCA-job Pt3_zntop E -2817.268686282513
  Pt     -5.536260     11.956369      8.383269
  Pt     -5.005446      9.299347      8.571563
  Pt     -3.355878     11.101759      9.762254
  O      -7.228258     14.230163      7.286361
  O      -7.656230     10.062010      7.193361
  O      -5.664187      6.421696      7.849761
  O      -2.746852      8.133056     10.317101
  O      -3.944524     14.125159      9.892341
  O      -0.821117     11.728819     11.317851
  C      -6.576596     13.366387      7.689220
  C      -6.661374     10.300711      7.774842
  C      -5.405154      7.517295      8.106241
  C      -3.383611      9.011947      9.862014
  C      -4.185476     13.016314      9.580510
  C      -1.774930     11.489408     10.712823
  Zn     -3.395606     10.911049      7.094679
16
Coordinates from ORCA-job Pt3_zntop E -2817.269350519848
  Pt     -5.527899     11.959471      8.370175
  Pt     -4.995206      9.298931      8.558075
  Pt     -3.345366     11.104350      9.751741
  O      -7.221543     14.233106      7.271437
  O      -7.674754     10.061243      7.235370
  O      -5.655913      6.421768      7.830526
  O      -2.772498      8.137140     10.352174
  O      -3.969197     14.118715      9.926602
  O      -0.810546     11.729496     11.310163
  C      -6.569383     13.369988      7.675842
  C      -6.662676     10.301087      7.786373
  C      -5.395460      7.516410      8.090924
  C      -3.389502      9.015476      9.869091
  C      -4.190043     13.013671      9.586860
  C      -1.765127     11.491526     10.705153
  Zn     -3.396387     10.899112      7.073681
16
Coordinates from ORCA-job Pt3_zntop E -2817.269953077425
  Pt     -5.519613     11.960952      8.359340
  Pt     -4.985979      9.300135      8.546689
  Pt     -3.336752     11.106597      9.740361
  O      -7.209341     14.232838      7.253240
  O      -7.693989     10.060398      7.279857
  O      -5.644509      6.425502      7.808430
  O      -2.798539      8.141558     10.386844
  O      -3.994457     14.111360      9.961512
  O      -0.801711     11.729645     11.297961
  C      -6.558671     13.370354      7.661402
  C      -6.666876     10.301212      7.801907
  C      -5.384529      7.518869      8.074636
  C      -3.396595      9.018693      9.878413
  C      -4.196104     13.011004      9.595733
  C      -1.757450     11.492943     10.694213
  Zn     -3.396385     10.889431      7.053653
16
Coordinates from ORCA-job Pt3_zntop E -2817.270489910893
  Pt     -5.511354     11.961286      8.349403
  Pt     -4.977166      9.302440      8.536500
  Pt     -3.329537     11.108269      9.729095
  O      -7.195311     14.233130      7.231093
  O      -7.713242     10.059711      7.328867
  O      -5.630923      6.429454      7.784139
  O      -2.827757      8.147307     10.422848
  O      -4.022621     14.101010      9.999042
  O      -0.790557     11.729474     11.282903
  C      -6.547480     13.370913      7.644651
  C      -6.670754     10.301637      7.819458
  C      -5.372941      7.521647      8.057448
  C      -3.404819      9.022811      9.887598
  C      -4.203186     13.006593      9.604912
  C      -1.748465     11.493928     10.681904
  Zn     -3.395386     10.881879      7.034329
16
Coordinates from ORCA-job Pt3_zntop E -2817.270943482586
  Pt     -5.503229     11.961631      8.339295
  Pt     -4.969088      9.304556      8.526669
  Pt     -3.322650     11.109862      9.717893
  O      -7.177621     14.232576      7.207053
  O      -7.732575     10.058961      7.379690
  O      -5.615027      6.434114      7.758745
  O      -2.859197      8.153192     10.459930
  O      -4.052946     14.089105     10.038663
  O      -0.778780     11.729370     11.262895
  C      -6.534047     13.370373      7.626979
  C      -6.675717     10.302000      7.837894
  C      -5.360669      7.525103      8.039857
  C      -3.414344      9.026413      9.898382
  C      -4.211804     13.001979      9.615889
  C      -1.739605     11.494745     10.666382
  Zn     -3.394201     10.877511      7.017974
16
Coordinates from ORCA-job Pt3_zntop E -2817.271303330563
  Pt     -5.495274     11.961967      8.328171
  Pt     -4.961007      9.306356      8.516278
  Pt     -3.315404     11.111004      9.706547
  O      -7.160526     14.233954      7.181903
  O      -7.750652     10.058421      7.433424
  O      -5.598529      6.437504      7.734041
  O      -2.894735      8.160724     10.498636
  O      -4.086480     14.073346     10.080718
  O      -0.764210     11.729302     11.241545
  C      -6.521685     13.371297      7.608324
  C      -6.678888     10.302622      7.855296
  C      -5.348604      7.527596      8.022762
  C      -3.424736      9.030759      9.908260
  C      -4.220911     12.995569      9.626134
  C      -1.728628     11.495443     10.650386
  Zn     -3.391230     10.875625      7.001766
16
Coordinates from ORCA-job Pt3_zntop E -2817.271553831391
  Pt     -5.486719     11.962597      8.315583
  Pt     -4.952887      9.307733      8.504850
  Pt     -3.307575     11.112078      9.693942
  O      -7.141972     14.235460      7.158168
  O      -7.767055     10.058182      7.487261
  O      -5.581307      6.439901      7.710658
  O      -2.933255      8.169441     10.538388
  O      -4.121640     14.054998     10.123848
  O      -0.749757     11.729775     11.216793
  C      -6.508211     13.372014      7.590396
  C      -6.681602     10.303339      7.871728
  C      -5.336607      7.529332      8.006209
  C      -3.436596      9.035205      9.919174
  C      -4.231038     12.988349      9.637385
  C      -1.717885     11.496286     10.631683
  Zn     -3.387394     10.876800      6.988123
16
Coordinates from ORCA-job Pt3_zntop E -2817.271681974369
  Pt     -5.479504     11.963824      8.302421
  Pt     -4.944940      9.307911      8.492704
  Pt     -3.298647     11.112680      9.681634
  O      -7.125870     14.239052      7.134833
  O      -7.781568     10.058246      7.543258
  O      -5.563850      6.441151      7.687994
  O      -2.976884      8.180724     10.580509
  O      -4.158758     14.032362     10.167824
  O      -0.732434     11.730416     11.192160
  C      -6.497253     13.374500      7.572747
  C      -6.682014     10.304111      7.885583
  C      -5.324952      7.530142      7.990274
  C      -3.448759      9.040429      9.928522
  C      -4.240167     12.979568      9.646349
  C      -1.704751     11.497086     10.613649
  Zn     -3.381149     10.879289      6.973729
16
Coordinates from ORCA-job Pt3_zntop E -2817.271699408714
  Pt     -5.475670     11.964118      8.295982
  Pt     -4.941716      9.307912      8.486921
  Pt     -3.294930     11.112675      9.675691
  O      -7.118974     14.240590      7.127751
  O      -7.785966     10.058290      7.562472
  O      -5.556793      6.440340      7.680576
  O      -2.994547      8.185232     10.596242
  O      -4.172255     14.023423     10.183524
  O      -0.726318     11.731413     11.180513
  C      -6.492295     13.375369      7.566829
  C      -6.682583     10.304363      7.891201
  C      -5.320643      7.529412      7.984424
  C      -3.455090      9.042522      9.933546
  C      -4.244883     12.975520      9.651571
  C      -1.700061     11.497566     10.604879
  Zn     -3.378776     10.882745      6.972069
16
Coordinates from ORCA-job Pt3_zntop E -2817.271707494906
  Pt     -5.476432     11.965342      8.294354
  Pt     -4.941549      9.306163      8.485103
  Pt     -3.292823     11.112595      9.675345
  O      -7.118974     14.242565      7.126720
  O      -7.786711     10.058215      7.567144
  O      -5.554898      6.438313      7.678932
  O      -3.001296      8.186771     10.601357
  O      -4.175331     14.020357     10.186537
  O      -0.723150     11.732262     11.178038
  C      -6.492984     13.376931      7.566163
  C      -6.681693     10.304340      7.890837
  C      -5.320134      7.527628      7.983248
  C      -3.456688      9.043146      9.933720
  C      -4.244916     12.973964      9.651002
  C      -1.697566     11.497875     10.603620
  Zn     -3.376355     10.885024      6.972068
16
Coordinates from ORCA-job Pt3_zntop E -2817.271712148815
  Pt     -5.477175     11.965380      8.294075
  Pt     -4.941712      9.305545      8.484139
  Pt     -3.292543     11.111977      9.675688
  O      -7.120636     14.243277      7.128676
  O      -7.785897     10.057950      7.564242
  O      -5.554674      6.437483      7.680456
  O      -3.001689      8.186131     10.600257
  O      -4.172560     14.021124     10.182763
  O      -0.722936     11.732773     11.178554
  C      -6.494534     13.377382      7.567528
  C      -6.681610     10.304082      7.890405
  C      -5.320482      7.527165      7.983907
  C      -3.457776      9.042974      9.933713
  C      -4.244613     12.973294      9.650406
  C      -1.697282     11.497680     10.604248
  Zn     -3.375383     10.887273      6.975133
16
Coordinates from ORCA-job Pt3_zntop E -2817.271713775271
  Pt     -5.477617     11.965436      8.294469
  Pt     -4.942514      9.304832      8.484263
  Pt     -3.292692     11.111739      9.675905
  O      -7.121227     14.243411      7.130100
  O      -7.785605     10.057929      7.562256
  O      -5.554292      6.435977      7.680587
  O      -3.001403      8.185463     10.599147
  O      -4.169410     14.022566     10.179104
  O      -0.723746     11.733462     11.178814
  C      -6.495205     13.377401      7.568930
  C      -6.681850     10.303982      7.890483
  C      -5.320979      7.525907      7.984064
  C      -3.458445      9.042762      9.933737
  C      -4.244172     12.973203      9.650030
  C      -1.698014     11.497680     10.604604
  Zn     -3.374328     10.889740      6.977698
16
Coordinates from ORCA-job Pt3_zntop E -2817.271714497468
  Pt     -5.478149     11.965214      8.294961
  Pt     -4.942586      9.304876      8.484028
  Pt     -3.292997     11.111375      9.676290
  O      -7.121326     14.243079      7.129455
  O      -7.786273     10.057812      7.563393
  O      -5.553073      6.436374      7.679340
  O      -3.002156      8.185165     10.599626
  O      -4.167933     14.023239     10.177541
  O      -0.723625     11.733372     11.178738
  C      -6.495627     13.377143      7.568941
  C      -6.682378     10.303796      7.891316
  C      -5.320438      7.526307      7.983344
  C      -3.459071      9.042503      9.934117
  C      -4.243817     12.973297      9.649685
  C      -1.698064     11.497314     10.604888
  Zn     -3.373987     10.890623      6.978528
