16
Coordinates from ORCA-job Pt3_znb E -2817.174215134462
  Pt     -5.435140     12.017070      8.688200
  Pt     -5.040660      9.325230      8.612770
  Pt     -3.313310     10.913570      9.986170
  O      -7.159060     14.413360      7.927760
  O      -7.435840     10.393300      7.007070
  O      -5.927420      6.553530      7.704840
  O      -2.661560      7.908210      9.954610
  O      -3.528870     13.978600     10.100750
  O      -0.842300     11.230390     11.743680
  C      -6.493720     13.520320      8.215820
  C      -6.509410     10.508980      7.715140
  C      -5.592290      7.599430      8.047170
  C      -3.312040      8.845320      9.686960
  C      -3.900780     12.912550      9.787860
  C      -1.774510     11.110860     11.080330
  Zn     -3.075770     15.606540     10.717730
16
Coordinates from ORCA-job Pt3_znb E -2817.180521104048
  Pt     -5.384575     11.994475      8.673735
  Pt     -5.005000      9.349872      8.575729
  Pt     -3.320866     10.925334      9.928436
  O      -7.134864     14.384777      8.011985
  O      -7.410334     10.403283      7.009028
  O      -5.976984      6.578787      7.805054
  O      -2.654611      7.931605      9.927576
  O      -3.525396     13.943900     10.058560
  O      -0.932731     11.243030     11.775974
  C      -6.458374     13.487091      8.262569
  C      -6.454517     10.520302      7.680054
  C      -5.607855      7.629917      8.097285
  C      -3.282991      8.874163      9.620689
  C      -3.897987     12.856819      9.737186
  C      -1.838223     11.120806     11.074942
  Zn     -3.117374     15.593097     10.738058
16
Coordinates from ORCA-job Pt3_znb E -2817.189710389358
  Pt     -5.405054     12.010089      8.677545
  Pt     -5.035398      9.318215      8.599978
  Pt     -3.305642     10.923414      9.957535
  O      -7.092715     14.436526      7.973002
  O      -7.460022     10.390674      7.006672
  O      -5.959401      6.555336      7.756666
  O      -2.651247      7.888754      9.958905
  O      -3.503640     13.964736     10.028526
  O      -0.870356     11.255782     11.743600
  C      -6.445180     13.517165      8.235023
  C      -6.507411     10.513555      7.690025
  C      -5.606827      7.607276      8.077427
  C      -3.282985      8.839151      9.663902
  C      -3.897130     12.833224      9.719651
  C      -1.794337     11.121864     11.064374
  Zn     -3.185336     15.661497     10.824029
16
Coordinates from ORCA-job Pt3_znb E -2817.195947319490
  Pt     -5.403065     12.017943      8.637274
  Pt     -5.009098      9.340406      8.578041
  Pt     -3.269371     10.915781      9.933842
  O      -7.139973     14.438379      7.988973
  O      -7.444158     10.363102      7.002058
  O      -6.001203      6.559442      7.839414
  O      -2.663583      7.883010      9.925565
  O      -3.453347     13.989987      9.968399
  O      -0.873725     11.202507     11.795648
  C      -6.483028     13.518359      8.223524
  C      -6.481836     10.513594      7.662491
  C      -5.623620      7.614644      8.119384
  C      -3.264491      8.848348      9.622561
  C      -3.860182     12.844860      9.674124
  C      -1.778971     11.080545     11.089500
  Zn     -3.253029     15.706353     10.916063
16
Coordinates from ORCA-job Pt3_znb E -2817.205587240393
  Pt     -5.396150     12.026467      8.633219
  Pt     -5.030059      9.337480      8.612158
  Pt     -3.263602     10.923495      9.930536
  O      -7.073153     14.466477      7.927782
  O      -7.448760     10.336463      7.033253
  O      -6.000262      6.550917      7.837601
  O      -2.702941      7.873785      9.938642
  O      -3.406876     13.996267      9.900834
  O      -0.819869     11.202188     11.722542
  C      -6.446231     13.532984      8.178541
  C      -6.496865     10.504909      7.696551
  C      -5.631849      7.603469      8.129141
  C      -3.292952      8.845443      9.650773
  C      -3.831955     12.856123      9.642293
  C      -1.742088     11.080187     11.042672
  Zn     -3.419069     15.700606     11.100321
16
Coordinates from ORCA-job Pt3_znb E -2817.214304732069
  Pt     -5.370050     12.030005      8.599462
  Pt     -5.030816      9.335104      8.612481
  Pt     -3.239276     10.926217      9.895756
  O      -7.014778     14.492890      7.907988
  O      -7.452657     10.341812      7.040877
  O      -6.051324      6.554669      7.917615
  O      -2.702816      7.872648      9.948528
  O      -3.364134     13.982572      9.821987
  O      -0.795695     11.220959     11.682798
  C      -6.403880     13.549815      8.151330
  C      -6.494899     10.510912      7.689361
  C      -5.663720      7.604424      8.178251
  C      -3.282304      8.843093      9.648519
  C      -3.787583     12.875937      9.591451
  C      -1.716180     11.095726     11.005295
  Zn     -3.632568     15.600476     11.285161
16
Coordinates from ORCA-job Pt3_znb E -2817.218628472765
  Pt     -5.353501     12.027369      8.585002
  Pt     -5.048451      9.334750      8.642707
  Pt     -3.232140     10.926174      9.879337
  O      -6.935131     14.521828      7.858793
  O      -7.463845     10.356151      7.062030
  O      -6.069603      6.555134      7.941218
  O      -2.709576      7.879727      9.978077
  O      -3.322957     13.978449      9.755485
  O      -0.749827     11.245243     11.607564
  C      -6.348922     13.566141      8.115038
  C      -6.508216     10.517292      7.717310
  C      -5.681091      7.604915      8.203558
  C      -3.297617      8.846476      9.680409
  C      -3.750883     12.894482      9.554328
  C      -1.685198     11.115129     10.951302
  Zn     -3.845722     15.468000     11.444701
16
Coordinates from ORCA-job Pt3_znb E -2817.220879167924
  Pt     -5.327855     12.029259      8.550228
  Pt     -5.042640      9.327988      8.628170
  Pt     -3.208061     10.929699      9.839592
  O      -6.914546     14.540991      7.901241
  O      -7.466269     10.370954      7.057732
  O      -6.114517      6.549675      8.007872
  O      -2.693605      7.885794      9.978206
  O      -3.256453     13.992027      9.661382
  O      -0.772980     11.268501     11.630392
  C      -6.326927     13.578348      8.128345
  C      -6.504508     10.522295      7.709419
  C      -5.706058      7.600117      8.239330
  C      -3.287900      8.848287      9.672930
  C      -3.700377     12.912108      9.489923
  C      -1.690495     11.134552     10.949449
  Zn     -3.989489     15.346666     11.532650
16
Coordinates from ORCA-job Pt3_znb E -2817.222267410743
  Pt     -5.339390     12.027225      8.569070
  Pt     -5.071412      9.332243      8.679740
  Pt     -3.224204     10.925935      9.865064
  O      -6.824490     14.568730      7.784965
  O      -7.479912     10.391832      7.090774
  O      -6.099938      6.556238      7.984800
  O      -2.710715      7.900511     10.027425
  O      -3.239055     13.992183      9.642646
  O      -0.680889     11.286798     11.502758
  C      -6.275245     13.596544      8.062618
  C      -6.525048     10.530697      7.756697
  C      -5.707101      7.606734      8.244263
  C      -3.319382      8.856445      9.726868
  C      -3.696605     12.915093      9.491806
  C      -1.637599     11.147380     10.879068
  Zn     -4.171694     15.202672     11.668298
16
Coordinates from ORCA-job Pt3_znb E -2817.223785210353
  Pt     -5.301904     12.038564      8.525021
  Pt     -5.062445      9.330742      8.664077
  Pt     -3.190321     10.935866      9.818754
  O      -6.818962     14.585686      7.819399
  O      -7.474327     10.415944      7.088847
  O      -6.165863      6.551586      8.079343
  O      -2.696984      7.914040     10.030052
  O      -3.182516     14.002143      9.572878
  O      -0.694513     11.309958     11.526439
  C      -6.256359     13.614322      8.068007
  C      -6.501881     10.538954      7.731928
  C      -5.745233      7.600946      8.296191
  C      -3.301795      8.862597      9.699982
  C      -3.647308     12.930302      9.431549
  C      -1.631522     11.168524     10.875535
  Zn     -4.330747     15.037084     11.748859
16
Coordinates from ORCA-job Pt3_znb E -2817.225819917425
  Pt     -5.288952     12.052333      8.520243
  Pt     -5.067267      9.338953      8.678026
  Pt     -3.172808     10.945390      9.806031
  O      -6.797784     14.587410      7.777581
  O      -7.477547     10.433976      7.108700
  O      -6.182302      6.564328      8.107602
  O      -2.695177      7.924825     10.035254
  O      -3.138259     14.007670      9.524711
  O      -0.675895     11.314278     11.504516
  C      -6.234794     13.621688      8.041455
  C      -6.508293     10.544541      7.757101
  C      -5.757284      7.611864      8.318947
  C      -3.310957      8.866907      9.710326
  C      -3.613424     12.943213      9.396785
  C      -1.613091     11.174805     10.855404
  Zn     -4.468847     14.905079     11.834179
16
Coordinates from ORCA-job Pt3_znb E -2817.227737063586
  Pt     -5.277021     12.067137      8.518159
  Pt     -5.072546      9.348720      8.693884
  Pt     -3.154665     10.955820      9.792528
  O      -6.778385     14.588596      7.737996
  O      -7.482338     10.453215      7.133165
  O      -6.194906      6.578523      8.130720
  O      -2.692601      7.936938     10.038695
  O      -3.092395     14.012963      9.472748
  O      -0.663275     11.320071     11.490931
  C      -6.214624     13.629121      8.017263
  C      -6.517158     10.551537      7.787762
  C      -5.767141      7.624282      8.339239
  C      -3.320304      8.872559      9.721616
  C      -3.578676     12.956277      9.360059
  C      -1.598170     11.182269     10.840189
  Zn     -4.598476     14.759234     11.901906
16
Coordinates from ORCA-job Pt3_znb E -2817.229261151274
  Pt     -5.268748     12.077498      8.520577
  Pt     -5.083312      9.356378      8.717064
  Pt     -3.154964     10.962123      9.805967
  O      -6.789981     14.584460      7.751869
  O      -7.490130     10.468731      7.157108
  O      -6.169744      6.589383      8.088225
  O      -2.717166      7.943726     10.086666
  O      -3.034539     14.006380      9.397586
  O      -0.648806     11.319015     11.475739
  C      -6.215333     13.631362      8.027877
  C      -6.523834     10.556446      7.810411
  C      -5.755447      7.634326      8.321779
  C      -3.343548      8.874710      9.756060
  C      -3.542646     12.959775      9.316865
  C      -1.589448     11.182873     10.834144
  Zn     -4.675034     14.690075     11.908922
16
Coordinates from ORCA-job Pt3_znb E -2817.230656979668
  Pt     -5.270943     12.090453      8.540091
  Pt     -5.081533      9.365411      8.721043
  Pt     -3.144836     10.971391      9.800159
  O      -6.776647     14.583305      7.711808
  O      -7.505245     10.487454      7.193236
  O      -6.172759      6.601385      8.095998
  O      -2.709648      7.954234     10.085404
  O      -2.991722     14.005058      9.333933
  O      -0.656472     11.327556     11.490272
  C      -6.204537     13.636401      8.011176
  C      -6.536199     10.564142      7.842990
  C      -5.756802      7.645234      8.328191
  C      -3.343070      8.879815      9.754782
  C      -3.515449     12.966674      9.280411
  C      -1.590159     11.190950     10.839582
  Zn     -4.746659     14.567797     11.947785
16
Coordinates from ORCA-job Pt3_znb E -2817.231800582193
  Pt     -5.258444     12.099558      8.533230
  Pt     -5.082795      9.377002      8.732292
  Pt     -3.133297     10.977205      9.790613
  O      -6.793675     14.586440      7.747836
  O      -7.502528     10.504576      7.204229
  O      -6.167015      6.615138      8.090814
  O      -2.711792      7.964975     10.096015
  O      -2.933344     13.993098      9.241902
  O      -0.675527     11.339893     11.520920
  C      -6.208367     13.643067      8.031288
  C      -6.543396     10.572909      7.868842
  C      -5.753860      7.658198      8.329346
  C      -3.357356      8.886410      9.778799
  C      -3.477127     12.964159      9.221844
  C      -1.596874     11.199885     10.854041
  Zn     -4.807283     14.454747     11.934850
16
Coordinates from ORCA-job Pt3_znb E -2817.232757380761
  Pt     -5.256949     12.112174      8.546943
  Pt     -5.081723      9.386225      8.736466
  Pt     -3.131545     10.986466      9.798843
  O      -6.798855     14.583258      7.744403
  O      -7.500602     10.519965      7.213477
  O      -6.168068      6.628109      8.096280
  O      -2.709384      7.973726     10.097038
  O      -2.887904     13.983544      9.172557
  O      -0.680479     11.347635     11.531128
  C      -6.207573     13.646242      8.035117
  C      -6.547520     10.579798      7.887079
  C      -5.754291      7.670436      8.334830
  C      -3.363950      8.891055      9.787583
  C      -3.451507     12.965019      9.185777
  C      -1.599514     11.206850     10.861696
  Zn     -4.862815     14.356760     11.947643
16
Coordinates from ORCA-job Pt3_znb E -2817.233327393680
  Pt     -5.263566     12.121869      8.571746
  Pt     -5.099265      9.394376      8.773357
  Pt     -3.120817     10.991165      9.787367
  O      -6.796031     14.579226      7.719833
  O      -7.531090     10.534062      7.276402
  O      -6.131839      6.642027      8.037272
  O      -2.705617      7.979691     10.095151
  O      -2.840996     13.964664      9.072571
  O      -0.726071     11.369876     11.589400
  C      -6.205616     13.647836      8.029700
  C      -6.572888     10.587112      7.943192
  C      -5.738536      7.682988      8.312623
  C      -3.367007      8.894509      9.793227
  C      -3.424628     12.958931      9.130965
  C      -1.623210     11.221454     10.892451
  Zn     -4.855504     14.267473     11.951603
16
Coordinates from ORCA-job Pt3_znb E -2817.233906200301
  Pt     -5.263205     12.130328      8.586837
  Pt     -5.098244      9.400529      8.776556
  Pt     -3.126523     10.996992      9.801371
  O      -6.811963     14.577839      7.737959
  O      -7.525666     10.546288      7.277678
  O      -6.128620      6.649734      8.032881
  O      -2.696000      7.985335     10.081597
  O      -2.799372     13.940078      8.994976
  O      -0.744791     11.382734     11.618424
  C      -6.212799     13.651418      8.047020
  C      -6.575069     10.592579      7.955853
  C      -5.736838      7.690343      8.311795
  C      -3.370708      8.896606      9.799084
  C      -3.404162     12.949593      9.093537
  C      -1.636335     11.230334     10.914664
  Zn     -4.872385     14.216529     11.946629
16
Coordinates from ORCA-job Pt3_znb E -2817.234358352749
  Pt     -5.264613     12.141404      8.597508
  Pt     -5.098984      9.408257      8.782292
  Pt     -3.127496     11.001929      9.813104
  O      -6.829799     14.574760      7.745841
  O      -7.512885     10.556796      7.268547
  O      -6.134961      6.659981      8.045269
  O      -2.677091      7.991269     10.051027
  O      -2.761334     13.913521      8.922758
  O      -0.768549     11.396677     11.655737
  C      -6.221188     13.654566      8.056478
  C      -6.577682     10.598923      7.968337
  C      -5.742019      7.700615      8.322915
  C      -3.364567      8.899465      9.789721
  C      -3.386873     12.940059      9.060496
  C      -1.650712     11.239620     10.940583
  Zn     -4.883927     14.159419     11.956247
16
Coordinates from ORCA-job Pt3_znb E -2817.234631567667
  Pt     -5.266932     12.147384      8.611904
  Pt     -5.102935      9.413776      8.789785
  Pt     -3.130463     11.006597      9.827734
  O      -6.849829     14.570107      7.766513
  O      -7.501263     10.567843      7.251515
  O      -6.135359      6.665939      8.048899
  O      -2.668123      7.998536     10.026300
  O      -2.731598     13.885773      8.854191
  O      -0.781544     11.412510     11.680004
  C      -6.231534     13.655213      8.075424
  C      -6.566383     10.603563      7.952588
  C      -5.744940      7.707051      8.329223
  C      -3.375440      8.902885      9.807088
  C      -3.374809     12.929883      9.030908
  C      -1.659069     11.250235     10.959551
  Zn     -4.882460     14.119966     11.965233
16
Coordinates from ORCA-job Pt3_znb E -2817.234938171595
  Pt     -5.269917     12.155036      8.625234
  Pt     -5.108763      9.416478      8.801334
  Pt     -3.140311     11.010378      9.841618
  O      -6.866897     14.569753      7.777567
  O      -7.487212     10.574349      7.240654
  O      -6.134910      6.667685      8.047230
  O      -2.647965      8.006079      9.989550
  O      -2.699546     13.850486      8.781126
  O      -0.817169     11.433792     11.724101
  C      -6.240550     13.659751      8.087679
  C      -6.569369     10.607491      7.964968
  C      -5.748676      7.709166      8.334023
  C      -3.368944      8.905951      9.794994
  C      -3.362854     12.917108      8.999737
  C      -1.683304     11.264269     10.990423
  Zn     -4.856293     14.089488     11.976622
16
Coordinates from ORCA-job Pt3_znb E -2817.235313389616
  Pt     -5.275671     12.165059      8.626624
  Pt     -5.116446      9.421957      8.811791
  Pt     -3.141878     11.014158      9.851956
  O      -6.890049     14.569170      7.779440
  O      -7.458443     10.577826      7.202936
  O      -6.149301      6.671179      8.074686
  O      -2.627880      8.016200      9.946655
  O      -2.677084     13.820082      8.723032
  O      -0.844858     11.457273     11.764518
  C      -6.253849     13.664888      8.089886
  C      -6.565501     10.612179      7.959038
  C      -5.762905      7.714369      8.357512
  C      -3.360229      8.913357      9.778428
  C      -3.358378     12.908462      8.977912
  C      -1.698645     11.279994     11.016782
  Zn     -4.821564     14.031108     12.015666
16
Coordinates from ORCA-job Pt3_znb E -2817.235621897595
  Pt     -5.280410     12.168974      8.635196
  Pt     -5.124444      9.424273      8.822253
  Pt     -3.155056     11.018399      9.864188
  O      -6.908476     14.568890      7.802007
  O      -7.436063     10.583622      7.175675
  O      -6.150643      6.672118      8.080436
  O      -2.610168      8.029090      9.913737
  O      -2.650860     13.779630      8.647778
  O      -0.890501     11.488289     11.809839
  C      -6.264547     13.667815      8.107461
  C      -6.562869     10.616593      7.955543
  C      -5.769011      7.716375      8.367242
  C      -3.354862      8.921112      9.769171
  C      -3.350650     12.895128      8.945041
  C      -1.729459     11.300500     11.047314
  Zn     -4.764662     13.986451     12.033978
16
Coordinates from ORCA-job Pt3_znb E -2817.236047043763
  Pt     -5.288642     12.177347      8.636717
  Pt     -5.135851      9.428322      8.837007
  Pt     -3.167182     11.025040      9.877893
  O      -6.926375     14.571973      7.804211
  O      -7.407840     10.585609      7.140849
  O      -6.156106      6.672499      8.097753
  O      -2.593791      8.046658      9.874852
  O      -2.630924     13.741095      8.582632
  O      -0.931184     11.524161     11.850710
  C      -6.276178     13.674784      8.109601
  C      -6.559217     10.621344      7.948472
  C      -5.779818      7.718649      8.386572
  C      -3.351156      8.933568      9.760448
  C      -3.349250     12.885895      8.919169
  C      -1.755880     11.325279     11.074813
  Zn     -4.693284     13.905037     12.075160
16
Coordinates from ORCA-job Pt3_znb E -2817.236479084601
  Pt     -5.297223     12.184321      8.641386
  Pt     -5.149367      9.433430      8.852009
  Pt     -3.182149     11.034753      9.892601
  O      -6.942866     14.573908      7.812125
  O      -7.376750     10.588848      7.103566
  O      -6.158185      6.674564      8.109686
  O      -2.582763      8.067669      9.845925
  O      -2.610755     13.697276      8.510111
  O      -0.974306     11.567128     11.889460
  C      -6.287096     13.680202      8.116454
  C      -6.555960     10.626667      7.940305
  C      -5.789463      7.722552      8.402760
  C      -3.351734      8.948693      9.758340
  C      -3.347081     12.875400      8.888123
  C      -1.784566     11.355601     11.101437
  Zn     -4.612415     13.806248     12.112572
16
Coordinates from ORCA-job Pt3_znb E -2817.246068863697
  Pt     -5.260233     12.211005      8.638508
  Pt     -5.124616      9.511390      8.893690
  Pt     -3.153394     11.064252      9.886672
  O      -6.919644     14.681957      7.804572
  O      -7.400360     10.620221      7.140838
  O      -6.213940      6.710934      8.242367
  O      -2.573513      8.070887      9.885193
  O      -2.587631     13.736398      8.462262
  O      -0.871350     11.616377     11.896763
  C      -6.256004     13.744300      8.114967
  C      -6.541867     10.688711      7.971215
  C      -5.812375      7.783465      8.501907
  C      -3.323486      8.995938      9.784997
  C      -3.315429     12.888899      8.866302
  C      -1.718648     11.387947     11.096258
  Zn     -4.930188     13.124580     11.790348
16
Coordinates from ORCA-job Pt3_znb E -2817.259173215502
  Pt     -5.235792     12.257995      8.656963
  Pt     -5.116656      9.581473      8.949200
  Pt     -3.131058     11.110140      9.901043
  O      -6.874129     14.777174      7.801230
  O      -7.414493     10.662480      7.200218
  O      -6.262554      6.761691      8.382932
  O      -2.577232      8.101190      9.930964
  O      -2.567591     13.783107      8.437538
  O      -0.810191     11.690227     11.901164
  C      -6.215245     13.813773      8.124104
  C      -6.533933     10.759565      8.024128
  C      -5.838996      7.847531      8.610612
  C      -3.305507      9.058660      9.820367
  C      -3.283418     12.924176      8.858251
  C      -1.677325     11.445687     11.097392
  Zn     -5.158560     12.262392     11.280754
16
Coordinates from ORCA-job Pt3_znb E -2817.274018862874
  Pt     -5.244952     12.286100      8.644609
  Pt     -5.123289      9.580881      8.944055
  Pt     -3.131773     11.137925      9.936369
  O      -6.841940     14.779278      7.807194
  O      -7.390328     10.668164      7.176633
  O      -6.296733      6.796258      8.498945
  O      -2.594055      8.134088      9.952735
  O      -2.599538     13.820325      8.512544
  O      -0.786620     11.687025     11.839164
  C      -6.207515     13.840419      8.119011
  C      -6.504980     10.782801      7.965922
  C      -5.867312      7.863102      8.682104
  C      -3.291461      9.090852      9.817807
  C      -3.294647     12.961678      8.903091
  C      -1.649950     11.459860     11.077671
  Zn     -5.177588     11.948505     11.099004
16
Coordinates from ORCA-job Pt3_znb E -2817.259295895556
  Pt     -5.264676     12.268824      8.623013
  Pt     -5.121275      9.535572      8.902306
  Pt     -3.137441     11.118194      9.933731
  O      -6.823411     14.684427      7.805348
  O      -7.353089     10.653546      7.136548
  O      -6.259634      6.803164      8.451439
  O      -2.588668      8.144942      9.921544
  O      -2.630993     13.778861      8.546814
  O      -0.823076     11.608442     11.763365
  C      -6.221356     13.799870      8.098641
  C      -6.497513     10.753633      7.907023
  C      -5.848376      7.832432      8.636024
  C      -3.279703      9.064287      9.789005
  C      -3.318906     12.943886      8.912348
  C      -1.652291     11.412429     11.048746
  Zn     -5.182272     12.434752     11.500965
16
Coordinates from ORCA-job Pt3_znb E -2817.280835751447
  Pt     -5.265518     12.284823      8.652853
  Pt     -5.114562      9.576280      8.925050
  Pt     -3.144214     11.140086      9.962427
  O      -6.838277     14.720571      7.744503
  O      -7.374153     10.661277      7.141299
  O      -6.283439      6.814448      8.499860
  O      -2.592344      8.138021      9.955378
  O      -2.622855     13.833351      8.582674
  O      -0.722386     11.601815     11.737386
  C      -6.215843     13.805971      8.081275
  C      -6.485990     10.769661      7.908590
  C      -5.854292      7.870566      8.675494
  C      -3.281200      9.082260      9.800800
  C      -3.319580     12.964829      8.948805
  C      -1.614182     11.407362     11.027801
  Zn     -5.273844     12.165939     11.332665
16
Coordinates from ORCA-job Pt3_znb E -2817.283715589489
  Pt     -5.264832     12.309253      8.679784
  Pt     -5.119755      9.611581      8.956814
  Pt     -3.146521     11.175416      9.987071
  O      -6.825278     14.725013      7.687477
  O      -7.367407     10.676213      7.145689
  O      -6.306124      6.846110      8.562452
  O      -2.608158      8.156137      9.985782
  O      -2.633363     13.885799      8.627278
  O      -0.654811     11.589761     11.682551
  C      -6.205222     13.818271      8.058100
  C      -6.465811     10.786333      7.899859
  C      -5.869491      7.905059      8.726107
  C      -3.288153      9.105680      9.812185
  C      -3.318400     12.997157      8.978268
  C      -1.576116     11.411427     11.002152
  Zn     -5.353237     11.838050     11.185291
16
Coordinates from ORCA-job Pt3_znb E -2817.285360635666
  Pt     -5.265166     12.326947      8.669719
  Pt     -5.124825      9.629858      8.972837
  Pt     -3.139732     11.188134      9.992930
  O      -6.834217     14.724325      7.662098
  O      -7.339368     10.679715      7.111097
  O      -6.327915      6.869125      8.618648
  O      -2.607725      8.168651      9.972259
  O      -2.637759     13.899298      8.644338
  O      -0.635966     11.579238     11.665261
  C      -6.209026     13.827583      8.039326
  C      -6.441255     10.788970      7.866463
  C      -5.886824      7.925901      8.768923
  C      -3.283530      9.117359      9.791149
  C      -3.322735     13.010975      8.991300
  C      -1.560939     11.409912     10.992118
  Zn     -5.385696     11.691270     11.218395
16
Coordinates from ORCA-job Pt3_znb E -2817.286704240354
  Pt     -5.231423     12.328588      8.628474
  Pt     -5.107280      9.638903      8.972339
  Pt     -3.115583     11.200555      9.946206
  O      -6.838061     14.728265      7.713555
  O      -7.321812     10.685068      7.089886
  O      -6.375970      6.897714      8.736762
  O      -2.585375      8.175878      9.979411
  O      -2.639160     13.960088      8.699972
  O      -0.640816     11.560065     11.654029
  C      -6.200793     13.831108      8.055723
  C      -6.408008     10.782282      7.821533
  C      -5.906165      7.944032      8.839947
  C      -3.258575      9.114028      9.763586
  C      -3.306714     13.040139      8.986825
  C      -1.557526     11.404391     10.972938
  Zn     -5.509420     11.546156     11.115675
16
Coordinates from ORCA-job Pt3_znb E -2817.287447316029
  Pt     -5.221188     12.339650      8.598266
  Pt     -5.124907      9.656925      9.002314
  Pt     -3.097561     11.214610      9.922011
  O      -6.829662     14.754964      7.726047
  O      -7.292247     10.677556      7.051442
  O      -6.421950      6.916762      8.815495
  O      -2.586351      8.186590      9.970619
  O      -2.647799     13.999175      8.719056
  O      -0.644227     11.575805     11.664294
  C      -6.192810     13.851263      8.052000
  C      -6.390340     10.783243      7.796655
  C      -5.943000      7.960848      8.901684
  C      -3.254537      9.126825      9.747371
  C      -3.304360     13.064484      8.986952
  C      -1.552076     11.423735     10.970225
  Zn     -5.499665     11.304824     11.052430
16
Coordinates from ORCA-job Pt3_znb E -2817.287963388414
  Pt     -5.231291     12.321153      8.617275
  Pt     -5.149122      9.644828      9.025520
  Pt     -3.122251     11.213794      9.929772
  O      -6.804316     14.761792      7.730248
  O      -7.252592     10.652987      7.004832
  O      -6.425714      6.891675      8.788898
  O      -2.581620      8.183110      9.939923
  O      -2.656890     14.003312      8.720272
  O      -0.639038     11.579926     11.642146
  C      -6.186251     13.845013      8.060628
  C      -6.385285     10.770238      7.790346
  C      -5.954643      7.938890      8.893319
  C      -3.258603      9.124289      9.740837
  C      -3.314803     13.066497      8.990279
  C      -1.558876     11.429585     10.961559
  Zn     -5.481385     11.410171     11.141006
16
Coordinates from ORCA-job Pt3_znb E -2817.288315323010
  Pt     -5.239811     12.327696      8.619490
  Pt     -5.144857      9.645957      9.047024
  Pt     -3.126653     11.208927      9.937882
  O      -6.753483     14.769140      7.629320
  O      -7.235967     10.625541      7.003839
  O      -6.449510      6.905489      8.865917
  O      -2.551076      8.178777      9.852210
  O      -2.715979     14.067792      8.872285
  O      -0.593438     11.545155     11.577416
  C      -6.162795     13.847393      7.998211
  C      -6.378750     10.763168      7.798869
  C      -5.964066      7.949047      8.947528
  C      -3.241656      9.121284      9.709347
  C      -3.350603     13.097282      9.075454
  C      -1.537513     11.408517     10.926170
  Zn     -5.556523     11.376094     11.115897
16
Coordinates from ORCA-job Pt3_znb E -2817.288473822236
  Pt     -5.230688     12.320091      8.610772
  Pt     -5.150190      9.641467      9.037328
  Pt     -3.110482     11.218418      9.920138
  O      -6.766959     14.774712      7.693874
  O      -7.168778     10.622661      6.922233
  O      -6.500053      6.923942      8.932675
  O      -2.559076      8.187736      9.857968
  O      -2.717478     14.079791      8.860631
  O      -0.587783     11.562113     11.572986
  C      -6.171770     13.844359      8.033883
  C      -6.348410     10.764308      7.755145
  C      -5.995363      7.960689      8.985129
  C      -3.247786      9.132094      9.718034
  C      -3.348709     13.105688      9.060065
  C      -1.530055     11.424919     10.918849
  Zn     -5.569101     11.274271     11.097150
16
Coordinates from ORCA-job Pt3_znb E -2817.288550170391
  Pt     -5.223653     12.318427      8.591026
  Pt     -5.152072      9.622434      9.032485
  Pt     -3.115667     11.213747      9.907926
  O      -6.745076     14.788681      7.694267
  O      -7.212796     10.619216      6.972707
  O      -6.486352      6.894401      8.901221
  O      -2.560141      8.188091      9.876419
  O      -2.720611     14.088130      8.866008
  O      -0.609014     11.564536     11.584229
  C      -6.159131     13.849422      8.025862
  C      -6.360437     10.765176      7.772289
  C      -5.986891      7.933888      8.962531
  C      -3.242435      9.134209      9.715823
  C      -3.343069     13.106610      9.054236
  C      -1.546767     11.425869     10.923505
  Zn     -5.538570     11.324423     11.096326
16
Coordinates from ORCA-job Pt3_znb E -2817.288466382948
  Pt     -5.234330     12.317887      8.601697
  Pt     -5.155441      9.645791      9.059676
  Pt     -3.139002     11.206993      9.932841
  O      -6.762779     14.777175      7.697937
  O      -7.182243     10.608525      6.947064
  O      -6.477425      6.917015      8.914132
  O      -2.539779      8.192824      9.802803
  O      -2.696462     14.051026      8.832684
  O      -0.628219     11.556588     11.602625
  C      -6.174119     13.842271      8.032172
  C      -6.350017     10.765822      7.764378
  C      -5.984158      7.958634      8.981553
  C      -3.233242      9.137730      9.693714
  C      -3.341822     13.089632      9.043838
  C      -1.566271     11.416827     10.944350
  Zn     -5.537371     11.352521     11.125395
16
Coordinates from ORCA-job Pt3_znb E -2817.288592166797
  Pt     -5.240219     12.314004      8.626390
  Pt     -5.163353      9.640432      9.053289
  Pt     -3.122407     11.217935      9.936589
  O      -6.746429     14.765910      7.659368
  O      -7.172337     10.617444      6.934667
  O      -6.484727      6.911242      8.889494
  O      -2.571992      8.188331      9.875528
  O      -2.738679     14.086537      8.890622
  O      -0.558936     11.551770     11.530387
  C      -6.167565     13.833826      8.017843
  C      -6.351348     10.768612      7.764048
  C      -5.990273      7.951790      8.961396
  C      -3.251694      9.138067      9.731461
  C      -3.360091     13.105565      9.079850
  C      -1.519006     11.418128     10.903690
  Zn     -5.563624     11.327669     11.122238
16
Coordinates from ORCA-job Pt3_znb E -2817.288421152206
  Pt     -5.224885     12.330731      8.603709
  Pt     -5.150893      9.617855      9.038292
  Pt     -3.126079     11.217057      9.920572
  O      -6.739657     14.798605      7.679369
  O      -7.213640     10.627935      6.987052
  O      -6.488779      6.894164      8.918447
  O      -2.528499      8.200117      9.808977
  O      -2.687381     14.059306      8.826459
  O      -0.630925     11.577205     11.614227
  C      -6.157911     13.860761      8.021405
  C      -6.367596     10.773809      7.793129
  C      -5.987821      7.933159      8.975052
  C      -3.231770      9.138457      9.704125
  C      -3.333743     13.097628      9.037709
  C      -1.564503     11.434678     10.948994
  Zn     -5.568598     11.275794     11.099342
16
Coordinates from ORCA-job Pt3_znb E -2817.288691262583
  Pt     -5.230188     12.317093      8.602158
  Pt     -5.155251      9.632609      9.044088
  Pt     -3.123483     11.213141      9.922234
  O      -6.750469     14.781685      7.689745
  O      -7.181341     10.611040      6.941996
  O      -6.495462      6.910387      8.924414
  O      -2.552975      8.189733      9.837664
  O      -2.718860     14.079094      8.868211
  O      -0.602148     11.560670     11.576541
  C      -6.167614     13.843641      8.027596
  C      -6.350045     10.767499      7.760907
  C      -5.993247      7.948800      8.979622
  C      -3.237692      9.138382      9.707361
  C      -3.348335     13.102922      9.059642
  C      -1.547376     11.422815     10.927603
  Zn     -5.548196     11.317751     11.107077
16
Coordinates from ORCA-job Pt3_znb E -2817.288697487060
  Pt     -5.235495     12.319640      8.617079
  Pt     -5.160304      9.635620      9.054114
  Pt     -3.129810     11.215699      9.935434
  O      -6.745787     14.777190      7.670289
  O      -7.182769     10.616279      6.950019
  O      -6.485063      6.907229      8.902689
  O      -2.552969      8.192700      9.835741
  O      -2.714700     14.070082      8.860796
  O      -0.590253     11.560672     11.565071
  C      -6.166422     13.842567      8.021751
  C      -6.354907     10.770750      7.772170
  C      -5.989063      7.947655      8.969311
  C      -3.241490      9.139564      9.715456
  C      -3.349730     13.099635      9.061295
  C      -1.542250     11.423326     10.926621
  Zn     -5.561669     11.318653     11.119024
16
Coordinates from ORCA-job Pt3_znb E -2817.288711395964
  Pt     -5.233387     12.318384      8.611586
  Pt     -5.157950      9.634035      9.049297
  Pt     -3.126688     11.214577      9.929967
  O      -6.746855     14.779191      7.676748
  O      -7.179129     10.613132      6.943383
  O      -6.492131      6.909480      8.916541
  O      -2.553092      8.190868      9.834514
  O      -2.718900     14.075915      8.868606
  O      -0.592875     11.560647     11.566927
  C      -6.166885     13.843044      8.023896
  C      -6.351810     10.769463      7.765990
  C      -5.991960      7.948512      8.975585
  C      -3.239446      9.139044      9.711132
  C      -3.350551     13.101914      9.063143
  C      -1.543678     11.423259     10.926413
  Zn     -5.557341     11.315794     11.113131
16
Coordinates from ORCA-job Pt3_znb E -2817.288720077219
  Pt     -5.232969     12.318231      8.610562
  Pt     -5.157733      9.633502      9.048430
  Pt     -3.126607     11.214270      9.929945
  O      -6.746868     14.779544      7.677952
  O      -7.177419     10.612156      6.941211
  O      -6.494189      6.909778      8.920170
  O      -2.553263      8.190524      9.833471
  O      -2.719467     14.076656      8.870579
  O      -0.592195     11.561189     11.565610
  C      -6.167092     13.843174      8.024958
  C      -6.350762     10.769512      7.764325
  C      -5.992677      7.948356      8.976622
  C      -3.238973      9.139237      9.710368
  C      -3.350888     13.102240      9.063966
  C      -1.544315     11.423723     10.926983
  Zn     -5.557264     11.315168     11.111709
16
Coordinates from ORCA-job Pt3_znb E -2817.288749794115
  Pt     -5.233168     12.318033      8.611557
  Pt     -5.157040      9.632273      9.045869
  Pt     -3.127487     11.213218      9.932868
  O      -6.745154     14.779155      7.674299
  O      -7.171385     10.610348      6.934458
  O      -6.500726      6.911642      8.932059
  O      -2.553191      8.189517      9.828070
  O      -2.722623     14.078556      8.879504
  O      -0.585737     11.562431     11.556123
  C      -6.167627     13.843326      8.026747
  C      -6.347748     10.770560      7.760051
  C      -5.994061      7.948300      8.978497
  C      -3.237311      9.139808      9.708059
  C      -3.353431     13.103066      9.069729
  C      -1.545878     11.425191     10.929372
  Zn     -5.560113     11.311836     11.109599
16
Coordinates from ORCA-job Pt3_znb E -2817.288764387961
  Pt     -5.234339     12.318525      8.613978
  Pt     -5.157570      9.632332      9.046117
  Pt     -3.129854     11.213217      9.937894
  O      -6.742693     14.778086      7.667693
  O      -7.168954     10.610623      6.932364
  O      -6.502564      6.911865      8.934673
  O      -2.553391      8.190038      9.827434
  O      -2.724089     14.078560      8.885015
  O      -0.577581     11.562483     11.544990
  C      -6.167373     13.843430      8.026676
  C      -6.346852     10.771522      7.759302
  C      -5.993601      7.947592      8.976704
  C      -3.237447      9.140605      9.709263
  C      -3.355400     13.103372      9.074930
  C      -1.545497     11.426248     10.930081
  Zn     -5.565477     11.308762     11.109747
16
Coordinates from ORCA-job Pt3_znb E -2817.288771848739
  Pt     -5.236542     12.318984      8.618408
  Pt     -5.157201      9.632923      9.045470
  Pt     -3.132209     11.213390      9.942816
  O      -6.740903     14.776016      7.658838
  O      -7.168517     10.613086      6.932219
  O      -6.502387      6.912827      8.934098
  O      -2.552776      8.191073      9.828412
  O      -2.725285     14.077478      8.887331
  O      -0.570513     11.560852     11.535561
  C      -6.167622     13.843211      8.025612
  C      -6.347177     10.772357      7.760173
  C      -5.991609      7.947700      8.973183
  C      -3.238036      9.140877      9.711298
  C      -3.357241     13.103161      9.079341
  C      -1.545020     11.426260     10.930910
  Zn     -5.569643     11.307065     11.113190
16
Coordinates from ORCA-job Pt3_znb E -2817.288773797870
  Pt     -5.237478     12.319292      8.619240
  Pt     -5.157314      9.633598      9.046317
  Pt     -3.133409     11.214206      9.944156
  O      -6.739155     14.775836      7.654783
  O      -7.169892     10.614209      6.933855
  O      -6.501411      6.912714      8.931552
  O      -2.552521      8.192250      9.832116
  O      -2.726550     14.078309      8.889018
  O      -0.567312     11.558722     11.530923
  C      -6.166987     13.843357      8.023995
  C      -6.347708     10.771961      7.761272
  C      -5.990496      7.947443      8.971448
  C      -3.238698      9.141153      9.713050
  C      -3.358159     13.103898      9.081573
  C      -1.543979     11.425739     10.929516
  Zn     -5.571610     11.304573     11.114047
